data_HZF


#**************************************************************************
#
# CIF taken from the IZA-SC Database of Zeolite Structures
# Ch. Baerlocher, L.B. McCusker, D. H. Brouwer and B. Marler 
# Database of Zeolite Structures: https://www.iza-structure.org/databases/ 
#
# The atom coordinates and the cell parameters were optimized with DLS76
# assuming a pure SiO2 composition.
#
#**************************************************************************


_cell_length_a      25.2644
_cell_length_b      24.8715
_cell_length_c      14.5262
_cell_angle_alpha   90.00
_cell_angle_beta    104.64
_cell_angle_gamma   90.00
_cell_volume        8831.38
 

_symmetry_space_group_name_H-M 'C 1 2/c 1'
_symmetry_Int_Tables_number     15
_symmetry_cell_setting          monoclinic


loop_
  _symmetry_equiv_pos_as_xyz
X,Y,Z
-X,Y,-Z+1/2
-X,-Y,-Z
X,-Y,Z+1/2
X+1/2,Y+1/2,Z
-X+1/2,Y+1/2,-Z+1/2
-X+1/2,-Y+1/2,-Z
X+1/2,-Y+1/2,Z+1/2


loop_
  _atom_site_label
  _atom_site_type_symbol
  _atom_site_fract_x
  _atom_site_fract_y
  _atom_site_fract_z
T1     Si   0.55756   0.38157   0.09979 
T2     Si   0.36091   0.46973   0.42947 
T3     Si   0.37225   0.43579   0.79730 
T4     Si   0.49245   0.39312   0.88392 
T5     Si   0.42531   0.48099   0.64501 
T6     Si   0.11247   0.24154   0.35462 
T7     Si   0.30418   0.34899   0.67799 
T8     Si   0.13099   0.20491   0.56407 
T9     Si   0.21433   0.11428   0.53125 
T10    Si   0.22048   0.27203   0.62302 
T11    Si   0.20282   0.31102   0.40727 
T12    Si   0.50000   0.29735   0.75000 
T13    Si   0.50000   0.57456   0.75000 
O1     O    0.05373   0.24001   0.27869 
O2     O    0.58397   0.32232   0.10544 
O3     O    0.32883   0.38744   0.76778 
O4     O    0.19611   0.05648   0.56265 
O5     O    0.49684   0.33462   0.83903 
O6     O    0.39467   0.42595   0.38570 
O7     O    0.42949   0.41195   0.85885 
O8     O    0.52584   0.61216   0.68233 
O9     O    0.34902   0.47879   0.86014 
O10    O    0.45277   0.53741   0.68559 
O11    O    0.47204   0.43555   0.65900 
O12    O    0.38119   0.46409   0.70269 
O13    O    0.39577   0.48758   0.53366 
O14    O    0.51514   0.39013   0.99775 
O15    O    0.17605   0.15993   0.55938 
O16    O    0.34738   0.30200   0.67415 
O17    O    0.22287   0.37270   0.41522 
O18    O    0.16083   0.25336   0.63135 
O19    O    0.13913   0.30065   0.35731 
O20    O    0.24734   0.32267   0.68699 
O21    O    0.29297   0.38432   0.58208 
O22    O    0.10462   0.22754   0.45860 
O23    O    0.21567   0.28681   0.51335 
O24    O    0.23854   0.27837   0.34832 
